/*--------------------------------*- C++ -*----------------------------------*\
| =========                 |                                                 |
| \\      /  F ield         | OpenFOAM: The Open Source CFD Toolbox           |
|  \\    /   O peration     | Version:  2306                                  |
|   \\  /    A nd           | Website:  www.openfoam.com                      |
|    \\/     M anipulation  |                                                 |
\*---------------------------------------------------------------------------*/
// * * * * * * * * * * * * * * * * * * * * * * * * * * * * * * * * * * * * * //
FoamFile
{
    version         2;
    format          ascii;
    arch            "LSB;label=32;scalar=64";
    class           dictionary;
    location        "constant";
    object          transportProperties;
}

transportModel  Newtonian;

nu              nu [ 0 2 -1 0 0 0 0 ] 8.9e-07;

h               h [ 0 1 0 0 0 0 0 ] 0.001;


// ************************************************************************* //
